examples/feeders/CER3_2_34/Cargas_CER3_2_34.dss
New Load.IP_10358_MOD2 bus=BT_14322_1.2 phases=1 conn=Wye kv=0.22 kw=0.073 pf=0.92 Daily=cc38_Util Model=2 status=variable vminpu=0.93 vmaxpu=1.1 
New Load.IP_10358_MOD3 bus=BT_14322_1.2 phases=1 conn=Wye kv=0.22 kw=0.073 pf=0.92 Daily=cc38_Util Model=3 status=variable vminpu=0.93 vmaxpu=1.1 

New Load.IP_10361_MOD2 bus=BT_22878_1.2 phases=1 conn=Wye kv=0.22 kw=0.04 pf=0.92 Daily=cc38_Util Model=2 status=variable vminpu=0.93 vmaxpu=1.1 
New Load.IP_10361_MOD3 bus=BT_22878_1.2 phases=1 conn=Wye kv=0.22 kw=0.04 pf=0.92 Daily=cc38_Util Model=3 status=variable vminpu=0.93 vmaxpu=1.1 

New Load.IP_10362_MOD2 bus=BT_28020_1.2 phases=1 conn=Wye kv=0.22 kw=0.04 pf=0.92 Daily=cc38_Util Model=2 status=variable vminpu=0.93 vmaxpu=1.1 
New Load.IP_10362_MOD3 bus=BT_28020_1.2 phases=1 conn=Wye kv=0.22 kw=0.04 pf=0.92 Daily=cc38_Util Model=3 status=variable vminpu=0.93 vmaxpu=1.1 

New Load.IP_10363_MOD2 bus=BT_28018_1.2 phases=1 conn=Wye kv=0.22 kw=0.073 pf=0.92 Daily=cc38_Util Model=2 status=variable vminpu=0.93 vmaxpu=1.1 
New Load.IP_10363_MOD3 bus=BT_28018_1.2 phases=1 conn=Wye kv=0.22 kw=0.073 pf=0.92 Daily=cc38_Util Model=3 status=variable vminpu=0.93 vmaxpu=1.1 

New Load.IP_10364_MOD2 bus=BT_28016_1.2 phases=1 conn=Wye kv=0.22 kw=0.073 pf=0.92 Daily=cc38_Util Model=2 status=variable vminpu=0.93 vmaxpu=1.1 
New Load.IP_10364_MOD3 bus=BT_28016_1.2 phases=1 conn=Wye kv=0.22 kw=0.073 pf=0.92 Daily=cc38_Util Model=3 status=variable vminpu=0.93 vmaxpu=1.1 

New Load.IP_10365_MOD2 bus=BT_28026_1.2 phases=1 conn=Wye kv=0.22 kw=0.073 pf=0.92 Daily=cc38_Util Model=2 status=variable vminpu=0.93 vmaxpu=1.1 
New Load.IP_10365_MOD3 bus=BT_28026_1.2 phases=1 conn=Wye kv=0.22 kw=0.073 pf=0.92 Daily=cc38_Util Model=3 status=variable vminpu=0.93 vmaxpu=1.1 

New Load.IP_10366_MOD2 bus=BT_28025_1.2 phases=1 conn=Wye kv=0.22 kw=0.073 pf=0.92 Daily=cc38_Util Model=2 status=variable vminpu=0.93 vmaxpu=1.1 
New Load.IP_10366_MOD3 bus=BT_28025_1.2 phases=1 conn=Wye kv=0.22 kw=0.073 pf=0.92 Daily=cc38_Util Model=3 status=variable vminpu=0.93 vmaxpu=1.1 

New Load.IP_10367_MOD2 bus=BT_90342_1.3 phases=1 conn=Wye kv=0.219 kw=0.1375 pf=0.92 Daily=cc38_Util Model=2 status=variable vminpu=0.93 vmaxpu=1.1 
New Load.IP_10367_MOD3 bus=BT_90342_1.3 phases=1 conn=Wye kv=0.219 kw=0.1375 pf=0.92 Daily=cc38_Util Model=3 status=variable vminpu=0.93 vmaxpu=1.1 

New Load.IP_10368_MOD2 bus=BT_28031_1.2 phases=1 conn=Wye kv=0.219 kw=0.073 pf=0.92 Daily=cc38_Util Model=2 status=variable vminpu=0.93 vmaxpu=1.1 
New Load.IP_10368_MOD3 bus=BT_28031_1.2 phases=1 conn=Wye kv=0.219 kw=0.073 pf=0.92 Daily=cc38_Util Model=3 status=variable vminpu=0.93 vmaxpu=1.1 

New Load.IP_10369_MOD2 bus=BT_28037_1.3 phases=1 conn=Wye kv=0.219 kw=0.1375 pf=0.92 Daily=cc38_Util Model=2 status=variable vminpu=0.93 vmaxpu=1.1 
New Load.IP_10369_MOD3 bus=BT_28037_1.3 phases=1 conn=Wye kv=0.219 kw=0.1375 pf=0.92 Daily=cc38_Util Model=3 status=variable vminpu=0.93 vmaxpu=1.1 

New Load.IP_10370_MOD2 bus=BT_28038_1.3 phases=1 conn=Wye kv=0.219 kw=0.073 pf=0.92 Daily=cc38_Util Model=2 status=variable vminpu=0.93 vmaxpu=1.1 
New Load.IP_10370_MOD3 bus=BT_28038_1.3 phases=1 conn=Wye kv=0.219 kw=0.073 pf=0.92 Daily=cc38_Util Model=3 status=variable vminpu=0.93 vmaxpu=1.1 

New Load.IP_10371_MOD2 bus=BT_28036_1.1 phases=1 conn=Wye kv=0.219 kw=0.073 pf=0.92 Daily=cc38_Util Model=2 status=variable vminpu=0.93 vmaxpu=1.1 
New Load.IP_10371_MOD3 bus=BT_28036_1.1 phases=1 conn=Wye kv=0.219 kw=0.073 pf=0.92 Daily=cc38_Util Model=3 status=variable vminpu=0.93 vmaxpu=1.1 

New Load.IP_10372_MOD2 bus=BT_28039_1.3 phases=1 conn=Wye kv=0.219 kw=0.073 pf=0.92 Daily=cc38_Util Model=2 status=variable vminpu=0.93 vmaxpu=1.1 
New Load.IP_10372_MOD3 bus=BT_28039_1.3 phases=1 conn=Wye kv=0.219 kw=0.073 pf=0.92 Daily=cc38_Util Model=3 status=variable vminpu=0.93 vmaxpu=1.1 

New Load.IP_10373_MOD2 bus=BT_28035_1.3 phases=1 conn=Wye kv=0.219 kw=0.1375 pf=0.92 Daily=cc38_Util Model=2 status=variable vminpu=0.93 vmaxpu=1.1 
New Load.IP_10373_MOD3 bus=BT_28035_1.3 phases=1 conn=Wye kv=0.219 kw=0.1375 pf=0.92 Daily=cc38_Util Model=3 status=variable vminpu=0.93 vmaxpu=1.1 

New Load.IP_10374_MOD2 bus=BT_28032_1.3 phases=1 conn=Wye kv=0.219 kw=0.1375 pf=0.92 Daily=cc38_Util Model=2 status=variable vminpu=0.93 vmaxpu=1.1 
New Load.IP_10374_MOD3 bus=BT_28032_1.3 phases=1 conn=Wye kv=0.219 kw=0.1375 pf=0.92 Daily=cc38_Util Model=3 status=variable vminpu=0.93 vmaxpu=1.1 

New Load.IP_10375_MOD2 bus=BT_28040_1.3 phases=1 conn=Wye kv=0.219 kw=0.073 pf=0.92 Daily=cc38_Util Model=2 status=variable vminpu=0.93 vmaxpu=1.1 
New Load.IP_10375_MOD3 bus=BT_28040_1.3 phases=1 conn=Wye kv=0.219 kw=0.073 pf=0.92 Daily=cc38_Util Model=3 status=variable vminpu=0.93 vmaxpu=1.1 

New Load.IP_10376_MOD2 bus=BT_28033_1.3 phases=1 conn=Wye kv=0.219 kw=0.073 pf=0.92 Daily=cc38_Util Model=2 status=variable vminpu=0.93 vmaxpu=1.1 
New Load.IP_10376_MOD3 bus=BT_28033_1.3 phases=1 conn=Wye kv=0.219 kw=0.073 pf=0.92 Daily=cc38_Util Model=3 status=variable vminpu=0.93 vmaxpu=1.1 

New Load.IP_10377_MOD2 bus=BT_28034_1.1 phases=1 conn=Wye kv=0.219 kw=0.073 pf=0.92 Daily=cc38_Util Model=2 status=variable vminpu=0.93 vmaxpu=1.1 
New Load.IP_10377_MOD3 bus=BT_28034_1.1 phases=1 conn=Wye kv=0.219 kw=0.073 pf=0.92 Daily=cc38_Util Model=3 status=variable vminpu=0.93 vmaxpu=1.1 

New Load.IP_10425_MOD2 bus=BT_77612_1.3 phases=1 conn=Wye kv=0.219 kw=0.043 pf=0.92 Daily=cc38_Util Model=2 status=variable vminpu=0.93 vmaxpu=1.1 
New Load.IP_10425_MOD3 bus=BT_77612_1.3 phases=1 conn=Wye kv=0.219 kw=0.043 pf=0.92 Daily=cc38_Util Model=3 status=variable vminpu=0.93 vmaxpu=1.1 

New Load.IP_10695_MOD2 bus=BT_77582_1.3 phases=1 conn=Wye kv=0.219 kw=0.073 pf=0.92 Daily=cc38_Util Model=2 status=variable vminpu=0.93 vmaxpu=1.1 
New Load.IP_10695_MOD3 bus=BT_77582_1.3 phases=1 conn=Wye kv=0.219 kw=0.073 pf=0.92 Daily=cc38_Util Model=3 status=variable vminpu=0.93 vmaxpu=1.1 

New Load.IP_10696_MOD2 bus=BT_15580_1.1 phases=1 conn=Wye kv=0.219 kw=0.1375 pf=0.92 Daily=cc38_Util Model=2 status=variable vminpu=0.93 vmaxpu=1.1 
New Load.IP_10696_MOD3 bus=BT_15580_1.1 phases=1 conn=Wye kv=0.219 kw=0.1375 pf=0.92 Daily=cc38_Util Model=3 status=variable vminpu=0.93 vmaxpu=1.1 

New Load.IP_10697_MOD2 bus=BT_77606_1.3 phases=1 conn=Wye kv=0.219 kw=0.04 pf=0.92 Daily=cc38_Util Model=2 status=variable vminpu=0.93 vmaxpu=1.1 
New Load.IP_10697_MOD3 bus=BT_77606_1.3 phases=1 conn=Wye kv=0.219 kw=0.04 pf=0.92 Daily=cc38_Util Model=3 status=variable vminpu=0.93 vmaxpu=1.1 

New Load.IP_10698_MOD2 bus=BT_77607_1.3 phases=1 conn=Wye kv=0.219 kw=0.1375 pf=0.92 Daily=cc38_Util Model=2 status=variable vminpu=0.93 vmaxpu=1.1 
New Load.IP_10698_MOD3 bus=BT_77607_1.3 phases=1 conn=Wye kv=0.219 kw=0.1375 pf=0.92 Daily=cc38_Util Model=3 status=variable vminpu=0.93 vmaxpu=1.1 

New Load.IP_10699_MOD2 bus=BT_77615_1.1 phases=1 conn=Wye kv=0.219 kw=0.043 pf=0.92 Daily=cc38_Util Model=2 status=variable vminpu=0.93 vmaxpu=1.1 
New Load.IP_10699_MOD3 bus=BT_77615_1.1 phases=1 conn=Wye kv=0.219 kw=0.043 pf=0.92 Daily=cc38_Util Model=3 status=variable vminpu=0.93 vmaxpu=1.1 

New Load.IP_10703_MOD2 bus=BT_15612_1.3 phases=1 conn=Wye kv=0.219 kw=0.1375 pf=0.92 Daily=cc38_Util Model=2 status=variable vminpu=0.93 vmaxpu=1.1 
New Load.IP_10703_MOD3 bus=BT_15612_1.3 phases=1 conn=Wye kv=0.219 kw=0.1375 pf=0.92 Daily=cc38_Util Model=3 status=variable vminpu=0.93 vmaxpu=1.1 

New Load.IP_10704_MOD2 bus=BT_16987_1.3 phases=1 conn=Wye kv=0.219 kw=0.043 pf=0.92 Daily=cc38_Util Model=2 status=variable vminpu=0.93 vmaxpu=1.1 
New Load.IP_10704_MOD3 bus=BT_16987_1.3 phases=1 conn=Wye kv=0.219 kw=0.043 pf=0.92 Daily=cc38_Util Model=3 status=variable vminpu=0.93 vmaxpu=1.1 

New Load.IP_10721_MOD2 bus=BT_14284_1.3 phases=1 conn=Wye kv=0.219 kw=0.1375 pf=0.92 Daily=cc38_Util Model=2 status=variable vminpu=0.93 vmaxpu=1.1 
New Load.IP_10721_MOD3 bus=BT_14284_1.3 phases=1 conn=Wye kv=0.219 kw=0.1375 pf=0.92 Daily=cc38_Util Model=3 status=variable vminpu=0.93 vmaxpu=1.1 

New Load.IP_10874_MOD2 bus=BT_14267_1.3 phases=1 conn=Wye kv=0.219 kw=0.088 pf=0.92 Daily=cc38_Util Model=2 status=variable vminpu=0.93 vmaxpu=1.1 
New Load.IP_10874_MOD3 bus=BT_14267_1.3 phases=1 conn=Wye kv=0.219 kw=0.088 pf=0.92 Daily=cc38_Util Model=3 status=variable vminpu=0.93 vmaxpu=1.1 

New Load.IP_11283_MOD2 bus=BT_15586_1.2 phases=1 conn=Wye kv=0.219 kw=0.1375 pf=0.92 Daily=cc38_Util Model=2 status=variable vminpu=0.93 vmaxpu=1.1 
New Load.IP_11283_MOD3 bus=BT_15586_1.2 phases=1 conn=Wye kv=0.219 kw=0.1375 pf=0.92 Daily=cc38_Util Model=3 status=variable vminpu=0.93 vmaxpu=1.1 

New Load.IP_11560_MOD2 bus=BT_18544_1.3 phases=1 conn=Wye kv=0.219 kw=0.07 pf=0.92 Daily=cc38_Util Model=2 status=variable vminpu=0.93 vmaxpu=1.1 
New Load.IP_11560_MOD3 bus=BT_18544_1.3 phases=1 conn=Wye kv=0.219 kw=0.07 pf=0.92 Daily=cc38_Util Model=3 status=variable vminpu=0.93 vmaxpu=1.1 

New Load.IP_11561_MOD2 bus=BT_18549_1.3 phases=1 conn=Wye kv=0.219 kw=0.07 pf=0.92 Daily=cc38_Util Model=2 status=variable vminpu=0.93 vmaxpu=1.1 
New Load.IP_11561_MOD3 bus=BT_18549_1.3 phases=1 conn=Wye kv=0.219 kw=0.07 pf=0.92 Daily=cc38_Util Model=3 status=variable vminpu=0.93 vmaxpu=1.1 

New Load.IP_11562_MOD2 bus=BT_75980_1.1 phases=1 conn=Wye kv=0.219 kw=0.1375 pf=0.92 Daily=cc38_Util Model=2 status=variable vminpu=0.93 vmaxpu=1.1 
New Load.IP_11562_MOD3 bus=BT_75980_1.1 phases=1 conn=Wye kv=0.219 kw=0.1375 pf=0.92 Daily=cc38_Util Model=3 status=variable vminpu=0.93 vmaxpu=1.1 

New Load.IP_11604_MOD2 bus=BT_16984_1.2 phases=1 conn=Wye kv=0.22 kw=0.043 pf=0.92 Daily=cc38_Util Model=2 status=variable vminpu=0.93 vmaxpu=1.1 
New Load.IP_11604_MOD3 bus=BT_16984_1.2 phases=1 conn=Wye kv=0.22 kw=0.043 pf=0.92 Daily=cc38_Util Model=3 status=variable vminpu=0.93 vmaxpu=1.1 

New Load.IP_11608_MOD2 bus=BT_14838_1.2 phases=1 conn=Wye kv=0.22 kw=0.088 pf=0.92 Daily=cc38_Util Model=2 status=variable vminpu=0.93 vmaxpu=1.1 
New Load.IP_11608_MOD3 bus=BT_14838_1.2 phases=1 conn=Wye kv=0.22 kw=0.088 pf=0.92 Daily=cc38_Util Model=3 status=variable vminpu=0.93 vmaxpu=1.1 

New Load.IP_11693_MOD2 bus=BT_34000_1.1 phases=1 conn=Wye kv=0.219 kw=0.043 pf=0.92 Daily=cc38_Util Model=2 status=variable vminpu=0.93 vmaxpu=1.1 
New Load.IP_11693_MOD3 bus=BT_34000_1.1 phases=1 conn=Wye kv=0.219 kw=0.043 pf=0.92 Daily=cc38_Util Model=3 status=variable vminpu=0.93 vmaxpu=1.1 

New Load.IP_11694_MOD2 bus=BT_30102_1.2 phases=1 conn=Wye kv=0.219 kw=0.1435 pf=0.92 Daily=cc38_Util Model=2 status=variable vminpu=0.93 vmaxpu=1.1 
New Load.IP_11694_MOD3 bus=BT_30102_1.2 phases=1 conn=Wye kv=0.219 kw=0.1435 pf=0.92 Daily=cc38_Util Model=3 status=variable vminpu=0.93 vmaxpu=1.1 

New Load.IP_11695_MOD2 bus=BT_30101_1.3 phases=1 conn=Wye kv=0.219 kw=0.1435 pf=0.92 Daily=cc38_Util Model=2 status=variable vminpu=0.93 vmaxpu=1.1 
New Load.IP_11695_MOD3 bus=BT_30101_1.3 phases=1 conn=Wye kv=0.219 kw=0.1435 pf=0.92 Daily=cc38_Util Model=3 status=variable vminpu=0.93 vmaxpu=1.1 

New Load.IP_11787_MOD2 bus=BT_14282_1.1 phases=1 conn=Wye kv=0.219 kw=0.073 pf=0.92 Daily=cc38_Util Model=2 status=variable vminpu=0.93 vmaxpu=1.1 
New Load.IP_11787_MOD3 bus=BT_14282_1.1 phases=1 conn=Wye kv=0.219 kw=0.073 pf=0.92 Daily=cc38_Util Model=3 status=variable vminpu=0.93 vmaxpu=1.1 

New Load.IP_11858_MOD2 bus=BT_97029_1.3 phases=1 conn=Wye kv=0.219 kw=0.088 pf=0.92 Daily=cc38_Util Model=2 status=variable vminpu=0.93 vmaxpu=1.1 
New Load.IP_11858_MOD3 bus=BT_97029_1.3 phases=1 conn=Wye kv=0.219 kw=0.088 pf=0.92 Daily=cc38_Util Model=3 status=variable vminpu=0.93 vmaxpu=1.1 

New Load.IP_11859_MOD2 bus=BT_14247_1.3 phases=1 conn=Wye kv=0.219 kw=0.088 pf=0.92 Daily=cc38_Util Model=2 status=variable vminpu=0.93 vmaxpu=1.1 
New Load.IP_11859_MOD3 bus=BT_14247_1.3 phases=1 conn=Wye kv=0.219 kw=0.088 pf=0.92 Daily=cc38_Util Model=3 status=variable vminpu=0.93 vmaxpu=1.1 

New Load.IP_11860_MOD2 bus=BT_14247_1.3 phases=1 conn=Wye kv=0.219 kw=0.088 pf=0.92 Daily=cc38_Util Model=2 status=variable vminpu=0.93 vmaxpu=1.1 
New Load.IP_11860_MOD3 bus=BT_14247_1.3 phases=1 conn=Wye kv=0.219 kw=0.088 pf=0.92 Daily=cc38_Util Model=3 status=variable vminpu=0.93 vmaxpu=1.1 

New Load.IP_11862_MOD2 bus=BT_14255_1.2 phases=1 conn=Wye kv=0.219 kw=0.0835 pf=0.92 Daily=cc38_Util Model=2 status=variable vminpu=0.93 vmaxpu=1.1 
New Load.IP_11862_MOD3 bus=BT_14255_1.2 phases=1 conn=Wye kv=0.219 kw=0.0835 pf=0.92 Daily=cc38_Util Model=3 status=variable vminpu=0.93 vmaxpu=1.1 

New Load.IP_11863_MOD2 bus=BT_35395_1.3 phases=1 conn=Wye kv=0.219 kw=0.088 pf=0.92 Daily=cc38_Util Model=2 status=variable vminpu=0.93 vmaxpu=1.1 
New Load.IP_11863_MOD3 bus=BT_35395_1.3 phases=1 conn=Wye kv=0.219 kw=0.088 pf=0.92 Daily=cc38_Util Model=3 status=variable vminpu=0.93 vmaxpu=1.1 

New Load.IP_11864_MOD2 bus=BT_14224_1.2 phases=1 conn=Wye kv=0.219 kw=0.088 pf=0.92 Daily=cc38_Util Model=2 status=variable vminpu=0.93 vmaxpu=1.1 
New Load.IP_11864_MOD3 bus=BT_14224_1.2 phases=1 conn=Wye kv=0.219 kw=0.088 pf=0.92 Daily=cc38_Util Model=3 status=variable vminpu=0.93 vmaxpu=1.1 

New Load.IP_11865_MOD2 bus=BT_14220_1.3 phases=1 conn=Wye kv=0.219 kw=0.088 pf=0.92 Daily=cc38_Util Model=2 status=variable vminpu=0.93 vmaxpu=1.1 
New Load.IP_11865_MOD3 bus=BT_14220_1.3 phases=1 conn=Wye kv=0.219 kw=0.088 pf=0.92 Daily=cc38_Util Model=3 status=variable vminpu=0.93 vmaxpu=1.1 

New Load.IP_11866_MOD2 bus=BT_14213_1.3 phases=1 conn=Wye kv=0.219 kw=0.088 pf=0.92 Daily=cc38_Util Model=2 status=variable vminpu=0.93 vmaxpu=1.1 
New Load.IP_11866_MOD3 bus=BT_14213_1.3 phases=1 conn=Wye kv=0.219 kw=0.088 pf=0.92 Daily=cc38_Util Model=3 status=variable vminpu=0.93 vmaxpu=1.1 

New Load.IP_11867_MOD2 bus=BT_14212_1.3 phases=1 conn=Wye kv=0.219 kw=0.1 pf=0.92 Daily=cc38_Util Model=2 status=variable vminpu=0.93 vmaxpu=1.1 
New Load.IP_11867_MOD3 bus=BT_14212_1.3 phases=1 conn=Wye kv=0.219 kw=0.1 pf=0.92 Daily=cc38_Util Model=3 status=variable vminpu=0.93 vmaxpu=1.1 

New Load.IP_11868_MOD2 bus=BT_30179_1.3 phases=1 conn=Wye kv=0.219 kw=0.1435 pf=0.92 Daily=cc38_Util Model=2 status=variable vminpu=0.93 vmaxpu=1.1 
New Load.IP_11868_MOD3 bus=BT_30179_1.3 phases=1 conn=Wye kv=0.219 kw=0.1435 pf=0.92 Daily=cc38_Util Model=3 status=variable vminpu=0.93 vmaxpu=1.1 

New Load.IP_11869_MOD2 bus=BT_14226_1.3 phases=1 conn=Wye kv=0.219 kw=0.101 pf=0.92 Daily=cc38_Util Model=2 status=variable vminpu=0.93 vmaxpu=1.1 
New Load.IP_11869_MOD3 bus=BT_14226_1.3 phases=1 conn=Wye kv=0.219 kw=0.101 pf=0.92 Daily=cc38_Util Model=3 status=variable vminpu=0.93 vmaxpu=1.1 

New Load.IP_11870_MOD2 bus=BT_14232_1.3 phases=1 conn=Wye kv=0.219 kw=0.088 pf=0.92 Daily=cc38_Util Model=2 status=variable vminpu=0.93 vmaxpu=1.1 
New Load.IP_11870_MOD3 bus=BT_14232_1.3 phases=1 conn=Wye kv=0.219 kw=0.088 pf=0.92 Daily=cc38_Util Model=3 status=variable vminpu=0.93 vmaxpu=1.1 

New Load.IP_11871_MOD2 bus=BT_14234_1.3 phases=1 conn=Wye kv=0.219 kw=0.088 pf=0.92 Daily=cc38_Util Model=2 status=variable vminpu=0.93 vmaxpu=1.1 
New Load.IP_11871_MOD3 bus=BT_14234_1.3 phases=1 conn=Wye kv=0.219 kw=0.088 pf=0.92 Daily=cc38_Util Model=3 status=variable vminpu=0.93 vmaxpu=1.1 

New Load.IP_11872_MOD2 bus=BT_30181_1.3 phases=1 conn=Wye kv=0.219 kw=0.1435 pf=0.92 Daily=cc38_Util Model=2 status=variable vminpu=0.93 vmaxpu=1.1 
New Load.IP_11872_MOD3 bus=BT_30181_1.3 phases=1 conn=Wye kv=0.219 kw=0.1435 pf=0.92 Daily=cc38_Util Model=3 status=variable vminpu=0.93 vmaxpu=1.1 

New Load.IP_11873_MOD2 bus=BT_40298_1.3 phases=1 conn=Wye kv=0.219 kw=0.088 pf=0.92 Daily=cc38_Util Model=2 status=variable vminpu=0.93 vmaxpu=1.1 
New Load.IP_11873_MOD3 bus=BT_40298_1.3 phases=1 conn=Wye kv=0.219 kw=0.088 pf=0.92 Daily=cc38_Util Model=3 status=variable vminpu=0.93 vmaxpu=1.1 

New Load.IP_11874_MOD2 bus=BT_30174_1.3 phases=1 conn=Wye kv=0.219 kw=0.088 pf=0.92 Daily=cc38_Util Model=2 status=variable vminpu=0.93 vmaxpu=1.1 
New Load.IP_11874_MOD3 bus=BT_30174_1.3 phases=1 conn=Wye kv=0.219 kw=0.088 pf=0.92 Daily=cc38_Util Model=3 status=variable vminpu=0.93 vmaxpu=1.1 

New Load.IP_11875_MOD2 bus=BT_23805_1.3 phases=1 conn=Wye kv=0.219 kw=0.088 pf=0.92 Daily=cc38_Util Model=2 status=variable vminpu=0.93 vmaxpu=1.1 
New Load.IP_11875_MOD3 bus=BT_23805_1.3 phases=1 conn=Wye kv=0.219 kw=0.088 pf=0.92 Daily=cc38_Util Model=3 status=variable vminpu=0.93 vmaxpu=1.1 

New Load.IP_11876_MOD2 bus=BT_23808_1.3 phases=1 conn=Wye kv=0.219 kw=0.088 pf=0.92 Daily=cc38_Util Model=2 status=variable vminpu=0.93 vmaxpu=1.1 
New Load.IP_11876_MOD3 bus=BT_23808_1.3 phases=1 conn=Wye kv=0.219 kw=0.088 pf=0.92 Daily=cc38_Util Model=3 status=variable vminpu=0.93 vmaxpu=1.1 

New Load.IP_11878_MOD2 bus=BT_80972_1.2 phases=1 conn=Wye kv=0.22 kw=0.088 pf=0.92 Daily=cc38_Util Model=2 status=variable vminpu=0.93 vmaxpu=1.1 
New Load.IP_11878_MOD3 bus=BT_80972_1.2 phases=1 conn=Wye kv=0.22 kw=0.088 pf=0.92 Daily=cc38_Util Model=3 status=variable vminpu=0.93 vmaxpu=1.1 

New Load.IP_11879_MOD2 bus=BT_15525_1.1 phases=1 conn=Wye kv=0.219 kw=0.088 pf=0.92 Daily=cc38_Util Model=2 status=variable vminpu=0.93 vmaxpu=1.1 
New Load.IP_11879_MOD3 bus=BT_15525_1.1 phases=1 conn=Wye kv=0.219 kw=0.088 pf=0.92 Daily=cc38_Util Model=3 status=variable vminpu=0.93 vmaxpu=1.1 

New Load.IP_11946_MOD2 bus=BT_20964_1.2 phases=1 conn=Wye kv=0.22 kw=0.088 pf=0.92 Daily=cc38_Util Model=2 status=variable vminpu=0.93 vmaxpu=1.1 
New Load.IP_11946_MOD3 bus=BT_20964_1.2 phases=1 conn=Wye kv=0.22 kw=0.088 pf=0.92 Daily=cc38_Util Model=3 status=variable vminpu=0.93 vmaxpu=1.1 

New Load.IP_11948_MOD2 bus=BT_32804_1.2 phases=1 conn=Wye kv=0.22 kw=0.088 pf=0.92 Daily=cc38_Util Model=2 status=variable vminpu=0.93 vmaxpu=1.1 
New Load.IP_11948_MOD3 bus=BT_32804_1.2 phases=1 conn=Wye kv=0.22 kw=0.088 pf=0.92 Daily=cc38_Util Model=3 status=variable vminpu=0.93 vmaxpu=1.1 

New Load.IP_12263_MOD2 bus=BT_15124_1.1 phases=1 conn=Wye kv=0.22 kw=0.04 pf=0.92 Daily=cc38_Util Model=2 status=variable vminpu=0.93 vmaxpu=1.1 
New Load.IP_12263_MOD3 bus=BT_15124_1.1 phases=1 conn=Wye kv=0.22 kw=0.04 pf=0.92 Daily=cc38_Util Model=3 status=variable vminpu=0.93 vmaxpu=1.1 

New Load.IP_12292_MOD2 bus=BT_18558_1.2 phases=1 conn=Wye kv=0.219 kw=0.073 pf=0.92 Daily=cc38_Util Model=2 status=variable vminpu=0.93 vmaxpu=1.1 
New Load.IP_12292_MOD3 bus=BT_18558_1.2 phases=1 conn=Wye kv=0.219 kw=0.073 pf=0.92 Daily=cc38_Util Model=3 status=variable vminpu=0.93 vmaxpu=1.1 

New Load.IP_12649_MOD2 bus=BT_15122_1.1 phases=1 conn=Wye kv=0.22 kw=0.04 pf=0.92 Daily=cc38_Util Model=2 status=variable vminpu=0.93 vmaxpu=1.1 
New Load.IP_12649_MOD3 bus=BT_15122_1.1 phases=1 conn=Wye kv=0.22 kw=0.04 pf=0.92 Daily=cc38_Util Model=3 status=variable vminpu=0.93 vmaxpu=1.1 

New Load.IP_12650_MOD2 bus=BT_18556_1.3 phases=1 conn=Wye kv=0.219 kw=0.1435 pf=0.92 Daily=cc38_Util Model=2 status=variable vminpu=0.93 vmaxpu=1.1 
New Load.IP_12650_MOD3 bus=BT_18556_1.3 phases=1 conn=Wye kv=0.219 kw=0.1435 pf=0.92 Daily=cc38_Util Model=3 status=variable vminpu=0.93 vmaxpu=1.1 

New Load.IP_12651_MOD2 bus=BT_19950_1.2 phases=1 conn=Wye kv=0.219 kw=0.1435 pf=0.92 Daily=cc38_Util Model=2 status=variable vminpu=0.93 vmaxpu=1.1 
New Load.IP_12651_MOD3 bus=BT_19950_1.2 phases=1 conn=Wye kv=0.219 kw=0.1435 pf=0.92 Daily=cc38_Util Model=3 status=variable vminpu=0.93 vmaxpu=1.1 

New Load.IP_1295_MOD2 bus=BT_26556_1.3 phases=1 conn=Wye kv=0.219 kw=0.088 pf=0.92 Daily=cc38_Util Model=2 status=variable vminpu=0.93 vmaxpu=1.1 
New Load.IP_1295_MOD3 bus=BT_26556_1.3 phases=1 conn=Wye kv=0.219 kw=0.088 pf=0.92 Daily=cc38_Util Model=3 status=variable vminpu=0.93 vmaxpu=1.1 

New Load.IP_1297_MOD2 bus=BT_26539_1.3 phases=1 conn=Wye kv=0.219 kw=0.101 pf=0.92 Daily=cc38_Util Model=2 status=variable vminpu=0.93 vmaxpu=1.1 
New Load.IP_1297_MOD3 bus=BT_26539_1.3 phases=1 conn=Wye kv=0.219 kw=0.101 pf=0.92 Daily=cc38_Util Model=3 status=variable vminpu=0.93 vmaxpu=1.1 

New Load.IP_14221_MOD2 bus=BT_28038_1.2 phases=1 conn=Wye kv=0.219 kw=0.1885 pf=0.92 Daily=cc38_Util Model=2 status=variable vminpu=0.93 vmaxpu=1.1 
New Load.IP_14221_MOD3 bus=BT_28038_1.2 phases=1 conn=Wye kv=0.219 kw=0.1885 pf=0.92 Daily=cc38_Util Model=3 status=variable vminpu=0.93 vmaxpu=1.1 

New Load.IP_15091_MOD2 bus=BT_116611_1.3 phases=1 conn=Wye kv=0.219 kw=0.1435 pf=0.92 Daily=cc38_Util Model=2 status=variable vminpu=0.93 vmaxpu=1.1 
New Load.IP_15091_MOD3 bus=BT_116611_1.3 phases=1 conn=Wye kv=0.219 kw=0.1435 pf=0.92 Daily=cc38_Util Model=3 status=variable vminpu=0.93 vmaxpu=1.1 

New Load.IP_16571_MOD2 bus=BT_41154_1.2 phases=1 conn=Wye kv=0.22 kw=0.043 pf=0.92 Daily=cc38_Util Model=2 status=variable vminpu=0.93 vmaxpu=1.1 
New Load.IP_16571_MOD3 bus=BT_41154_1.2 phases=1 conn=Wye kv=0.22 kw=0.043 pf=0.92 Daily=cc38_Util Model=3 status=variable vminpu=0.93 vmaxpu=1.1 

New Load.IP_16572_MOD2 bus=BT_56866_1.2 phases=1 conn=Wye kv=0.22 kw=0.04 pf=0.92 Daily=cc38_Util Model=2 status=variable vminpu=0.93 vmaxpu=1.1 
New Load.IP_16572_MOD3 bus=BT_56866_1.2 phases=1 conn=Wye kv=0.22 kw=0.04 pf=0.92 Daily=cc38_Util Model=3 status=variable vminpu=0.93 vmaxpu=1.1 

New Load.IP_17207_MOD2 bus=BT_116850_1.3 phases=1 conn=Wye kv=0.219 kw=0.073 pf=0.92 Daily=cc38_Util Model=2 status=variable vminpu=0.93 vmaxpu=1.1 
New Load.IP_17207_MOD3 bus=BT_116850_1.3 phases=1 conn=Wye kv=0.219 kw=0.073 pf=0.92 Daily=cc38_Util Model=3 status=variable vminpu=0.93 vmaxpu=1.1 

New Load.IP_17430_MOD2 bus=BT_15105_1.1 phases=1 conn=Wye kv=0.22 kw=0.04 pf=0.92 Daily=cc38_Util Model=2 status=variable vminpu=0.93 vmaxpu=1.1 
New Load.IP_17430_MOD3 bus=BT_15105_1.1 phases=1 conn=Wye kv=0.22 kw=0.04 pf=0.92 Daily=cc38_Util Model=3 status=variable vminpu=0.93 vmaxpu=1.1 

New Load.IP_17431_MOD2 bus=BT_15114_1.1 phases=1 conn=Wye kv=0.22 kw=0.043 pf=0.92 Daily=cc38_Util Model=2 status=variable vminpu=0.93 vmaxpu=1.1 
New Load.IP_17431_MOD3 bus=BT_15114_1.1 phases=1 conn=Wye kv=0.22 kw=0.043 pf=0.92 Daily=cc38_Util Model=3 status=variable vminpu=0.93 vmaxpu=1.1 

New Load.IP_17432_MOD2 bus=BT_15117_1.1 phases=1 conn=Wye kv=0.22 kw=0.085 pf=0.92 Daily=cc38_Util Model=2 status=variable vminpu=0.93 vmaxpu=1.1 
New Load.IP_17432_MOD3 bus=BT_15117_1.1 phases=1 conn=Wye kv=0.22 kw=0.085 pf=0.92 Daily=cc38_Util Model=3 status=variable vminpu=0.93 vmaxpu=1.1 

New Load.IP_17433_MOD2 bus=BT_15119_1.1 phases=1 conn=Wye kv=0.22 kw=0.043 pf=0.92 Daily=cc38_Util Model=2 status=variable vminpu=0.93 vmaxpu=1.1 
New Load.IP_17433_MOD3 bus=BT_15119_1.1 phases=1 conn=Wye kv=0.22 kw=0.043 pf=0.92 Daily=cc38_Util Model=3 status=variable vminpu=0.93 vmaxpu=1.1 

New Load.IP_17434_MOD2 bus=BT_41181_1.1 phases=1 conn=Wye kv=0.22 kw=0.073 pf=0.92 Daily=cc38_Util Model=2 status=variable vminpu=0.93 vmaxpu=1.1 
New Load.IP_17434_MOD3 bus=BT_41181_1.1 phases=1 conn=Wye kv=0.22 kw=0.073 pf=0.92 Daily=cc38_Util Model=3 status=variable vminpu=0.93 vmaxpu=1.1 

New Load.IP_17435_MOD2 bus=BT_41163_1.1 phases=1 conn=Wye kv=0.22 kw=0.04 pf=0.92 Daily=cc38_Util Model=2 status=variable vminpu=0.93 vmaxpu=1.1 
New Load.IP_17435_MOD3 bus=BT_41163_1.1 phases=1 conn=Wye kv=0.22 kw=0.04 pf=0.92 Daily=cc38_Util Model=3 status=variable vminpu=0.93 vmaxpu=1.1 

New Load.IP_17437_MOD2 bus=BT_25493_1.1 phases=1 conn=Wye kv=0.22 kw=0.1375 pf=0.92 Daily=cc38_Util Model=2 status=variable vminpu=0.93 vmaxpu=1.1 
New Load.IP_17437_MOD3 bus=BT_25493_1.1 phases=1 conn=Wye kv=0.22 kw=0.1375 pf=0.92 Daily=cc38_Util Model=3 status=variable vminpu=0.93 vmaxpu=1.1 

New Load.IP_17438_MOD2 bus=BT_21138_1.2 phases=1 conn=Wye kv=0.22 kw=0.1435 pf=0.92 Daily=cc38_Util Model=2 status=variable vminpu=0.93 vmaxpu=1.1 
New Load.IP_17438_MOD3 bus=BT_21138_1.2 phases=1 conn=Wye kv=0.22 kw=0.1435 pf=0.92 Daily=cc38_Util Model=3 status=variable vminpu=0.93 vmaxpu=1.1 

New Load.IP_17459_MOD2 bus=BT_15208_1.2 phases=1 conn=Wye kv=0.22 kw=0.073 pf=0.92 Daily=cc38_Util Model=2 status=variable vminpu=0.93 vmaxpu=1.1 
New Load.IP_17459_MOD3 bus=BT_15208_1.2 phases=1 conn=Wye kv=0.22 kw=0.073 pf=0.92 Daily=cc38_Util Model=3 status=variable vminpu=0.93 vmaxpu=1.1 

New Load.IP_17589_MOD2 bus=BT_113697_2.2 phases=1 conn=Wye kv=0.22 kw=0.07 pf=0.92 Daily=cc38_Util Model=2 status=variable vminpu=0.93 vmaxpu=1.1 
New Load.IP_17589_MOD3 bus=BT_113697_2.2 phases=1 conn=Wye kv=0.22 kw=0.07 pf=0.92 Daily=cc38_Util Model=3 status=variable vminpu=0.93 vmaxpu=1.1 

New Load.IP_17590_MOD2 bus=BT_113694_1.2 phases=1 conn=Wye kv=0.22 kw=0.07 pf=0.92 Daily=cc38_Util Model=2 status=variable vminpu=0.93 vmaxpu=1.1 
New Load.IP_17590_MOD3 bus=BT_113694_1.2 phases=1 conn=Wye kv=0.22 kw=0.07 pf=0.92 Daily=cc38_Util Model=3 status=variable vminpu=0.93 vmaxpu=1.1 

New Load.IP_1780_MOD2 bus=BT_15614_1.3 phases=1 conn=Wye kv=0.219 kw=0.1375 pf=0.92 Daily=cc38_Util Model=2 status=variable vminpu=0.93 vmaxpu=1.1 
New Load.IP_1780_MOD3 bus=BT_15614_1.3 phases=1 conn=Wye kv=0.219 kw=0.1375 pf=0.92 Daily=cc38_Util Model=3 status=variable vminpu=0.93 vmaxpu=1.1 

New Load.IP_1781_MOD2 bus=BT_15613_1.1 phases=1 conn=Wye kv=0.219 kw=0.1375 pf=0.92 Daily=cc38_Util Model=2 status=variable vminpu=0.93 vmaxpu=1.1 
New Load.IP_1781_MOD3 bus=BT_15613_1.1 phases=1 conn=Wye kv=0.219 kw=0.1375 pf=0.92 Daily=cc38_Util Model=3 status=variable vminpu=0.93 vmaxpu=1.1 

New Load.IP_1783_MOD2 bus=BT_15610_1.3 phases=1 conn=Wye kv=0.219 kw=0.1375 pf=0.92 Daily=cc38_Util Model=2 status=variable vminpu=0.93 vmaxpu=1.1 
New Load.IP_1783_MOD3 bus=BT_15610_1.3 phases=1 conn=Wye kv=0.219 kw=0.1375 pf=0.92 Daily=cc38_Util Model=3 status=variable vminpu=0.93 vmaxpu=1.1 

New Load.IP_1784_MOD2 bus=BT_15579_1.3 phases=1 conn=Wye kv=0.219 kw=0.1375 pf=0.92 Daily=cc38_Util Model=2 status=variable vminpu=0.93 vmaxpu=1.1 
New Load.IP_1784_MOD3 bus=BT_15579_1.3 phases=1 conn=Wye kv=0.219 kw=0.1375 pf=0.92 Daily=cc38_Util Model=3 status=variable vminpu=0.93 vmaxpu=1.1 

New Load.IP_1785_MOD2 bus=BT_15611_1.1 phases=1 conn=Wye kv=0.219 kw=0.1375 pf=0.92 Daily=cc38_Util Model=2 status=variable vminpu=0.93 vmaxpu=1.1 
New Load.IP_1785_MOD3 bus=BT_15611_1.1 phases=1 conn=Wye kv=0.219 kw=0.1375 pf=0.92 Daily=cc38_Util Model=3 status=variable vminpu=0.93 vmaxpu=1.1 

New Load.IP_1788_MOD2 bus=BT_23902_1.1 phases=1 conn=Wye kv=0.22 kw=0.043 pf=0.92 Daily=cc38_Util Model=2 status=variable vminpu=0.93 vmaxpu=1.1 
New Load.IP_1788_MOD3 bus=BT_23902_1.1 phases=1 conn=Wye kv=0.22 kw=0.043 pf=0.92 Daily=cc38_Util Model=3 status=variable vminpu=0.93 vmaxpu=1.1 

New Load.IP_1789_MOD2 bus=BT_16989_1.2 phases=1 conn=Wye kv=0.22 kw=0.043 pf=0.92 Daily=cc38_Util Model=2 status=variable vminpu=0.93 vmaxpu=1.1 
New Load.IP_1789_MOD3 bus=BT_16989_1.2 phases=1 conn=Wye kv=0.22 kw=0.043 pf=0.92 Daily=cc38_Util Model=3 status=variable vminpu=0.93 vmaxpu=1.1 

New Load.IP_1790_MOD2 bus=BT_101972_1.2 phases=1 conn=Wye kv=0.22 kw=0.043 pf=0.92 Daily=cc38_Util Model=2 status=variable vminpu=0.93 vmaxpu=1.1 
New Load.IP_1790_MOD3 bus=BT_101972_1.2 phases=1 conn=Wye kv=0.22 kw=0.043 pf=0.92 Daily=cc38_Util Model=3 status=variable vminpu=0.93 vmaxpu=1.1 

New Load.IP_1791_MOD2 bus=BT_15578_1.1 phases=1 conn=Wye kv=0.219 kw=0.162 pf=0.92 Daily=cc38_Util Model=2 status=variable vminpu=0.93 vmaxpu=1.1 
New Load.IP_1791_MOD3 bus=BT_15578_1.1 phases=1 conn=Wye kv=0.219 kw=0.162 pf=0.92 Daily=cc38_Util Model=3 status=variable vminpu=0.93 vmaxpu=1.1 

New Load.IP_1792_MOD2 bus=BT_15593_1.3 phases=1 conn=Wye kv=0.219 kw=0.06 pf=0.92 Daily=cc38_Util Model=2 status=variable vminpu=0.93 vmaxpu=1.1 
New Load.IP_1792_MOD3 bus=BT_15593_1.3 phases=1 conn=Wye kv=0.219 kw=0.06 pf=0.92 Daily=cc38_Util Model=3 status=variable vminpu=0.93 vmaxpu=1.1 

New Load.IP_1793_MOD2 bus=BT_15575_1.2 phases=1 conn=Wye kv=0.219 kw=0.162 pf=0.92 Daily=cc38_Util Model=2 status=variable vminpu=0.93 vmaxpu=1.1 
New Load.IP_1793_MOD3 bus=BT_15575_1.2 phases=1 conn=Wye kv=0.219 kw=0.162 pf=0.92 Daily=cc38_Util Model=3 status=variable vminpu=0.93 vmaxpu=1.1 

New Load.IP_1794_MOD2 bus=BT_15573_2.3 phases=1 conn=Wye kv=0.219 kw=0.1435 pf=0.92 Daily=cc38_Util Model=2 status=variable vminpu=0.93 vmaxpu=1.1 
New Load.IP_1794_MOD3 bus=BT_15573_2.3 phases=1 conn=Wye kv=0.219 kw=0.1435 pf=0.92 Daily=cc38_Util Model=3 status=variable vminpu=0.93 vmaxpu=1.1 

New Load.IP_1795_MOD2 bus=BT_15592_1.3 phases=1 conn=Wye kv=0.219 kw=0.2175 pf=0.92 Daily=cc38_Util Model=2 status=variable vminpu=0.93 vmaxpu=1.1 
New Load.IP_1795_MOD3 bus=BT_15592_1.3 phases=1 conn=Wye kv=0.219 kw=0.2175 pf=0.92 Daily=cc38_Util Model=3 status=variable vminpu=0.93 vmaxpu=1.1 

New Load.IP_18002_MOD2 bus=BT_36532_1.3 phases=1 conn=Wye kv=0.219 kw=0.1375 pf=0.92 Daily=cc38_Util Model=2 status=variable vminpu=0.93 vmaxpu=1.1 
New Load.IP_18002_MOD3 bus=BT_36532_1.3 phases=1 conn=Wye kv=0.219 kw=0.1375 pf=0.92 Daily=cc38_Util Model=3 status=variable vminpu=0.93 vmaxpu=1.1 

New Load.IP_18003_MOD2 bus=BT_19954_1.3 phases=1 conn=Wye kv=0.219 kw=0.1435 pf=0.92 Daily=cc38_Util Model=2 status=variable vminpu=0.93 vmaxpu=1.1 
New Load.IP_18003_MOD3 bus=BT_19954_1.3 phases=1 conn=Wye kv=0.219 kw=0.1435 pf=0.92 Daily=cc38_Util Model=3 status=variable vminpu=0.93 vmaxpu=1.1 

New Load.IP_18004_MOD2 bus=BT_82367_1.3 phases=1 conn=Wye kv=0.219 kw=0.1435 pf=0.92 Daily=cc38_Util Model=2 status=variable vminpu=0.93 vmaxpu=1.1 
New Load.IP_18004_MOD3 bus=BT_82367_1.3 phases=1 conn=Wye kv=0.219 kw=0.1435 pf=0.92 Daily=cc38_Util Model=3 status=variable vminpu=0.93 vmaxpu=1.1 

New Load.IP_18021_MOD2 bus=BT_18545_1.3 phases=1 conn=Wye kv=0.219 kw=0.07 pf=0.92 Daily=cc38_Util Model=2 status=variable vminpu=0.93 vmaxpu=1.1 
New Load.IP_18021_MOD3 bus=BT_18545_1.3 phases=1 conn=Wye kv=0.219 kw=0.07 pf=0.92 Daily=cc38_Util Model=3 status=variable vminpu=0.93 vmaxpu=1.1 

New Load.IP_18022_MOD2 bus=BT_79788_1.1 phases=1 conn=Wye kv=0.219 kw=0.07 pf=0.92 Daily=cc38_Util Model=2 status=variable vminpu=0.93 vmaxpu=1.1 
New Load.IP_18022_MOD3 bus=BT_79788_1.1 phases=1 conn=Wye kv=0.219 kw=0.07 pf=0.92 Daily=cc38_Util Model=3 status=variable vminpu=0.93 vmaxpu=1.1 

New Load.IP_18023_MOD2 bus=BT_99882_1.1 phases=1 conn=Wye kv=0.219 kw=0.1375 pf=0.92 Daily=cc38_Util Model=2 status=variable vminpu=0.93 vmaxpu=1.1 
New Load.IP_18023_MOD3 bus=BT_99882_1.1 phases=1 conn=Wye kv=0.219 kw=0.1375 pf=0.92 Daily=cc38_Util Model=3 status=variable vminpu=0.93 vmaxpu=1.1 

New Load.IP_18024_MOD2 bus=BT_132_1.3 phases=1 conn=Wye kv=0.219 kw=0.1375 pf=0.92 Daily=cc38_Util Model=2 status=variable vminpu=0.93 vmaxpu=1.1 
New Load.IP_18024_MOD3 bus=BT_132_1.3 phases=1 conn=Wye kv=0.219 kw=0.1375 pf=0.92 Daily=cc38_Util Model=3 status=variable vminpu=0.93 vmaxpu=1.1 

New Load.IP_18223_MOD2 bus=BT_37030_1.2 phases=1 conn=Wye kv=0.219 kw=0.073 pf=0.92 Daily=cc38_Util Model=2 status=variable vminpu=0.93 vmaxpu=1.1 
New Load.IP_18223_MOD3 bus=BT_37030_1.2 phases=1 conn=Wye kv=0.219 kw=0.073 pf=0.92 Daily=cc38_Util Model=3 status=variable vminpu=0.93 vmaxpu=1.1 

New Load.IP_18225_MOD2 bus=BT_82125_1.2 phases=1 conn=Wye kv=0.22 kw=0.07 pf=0.92 Daily=cc38_Util Model=2 status=variable vminpu=0.93 vmaxpu=1.1 
New Load.IP_18225_MOD3 bus=BT_82125_1.2 phases=1 conn=Wye kv=0.22 kw=0.07 pf=0.92 Daily=cc38_Util Model=3 status=variable vminpu=0.93 vmaxpu=1.1 

New Load.IP_18226_MOD2 bus=BT_14470_1.2 phases=1 conn=Wye kv=0.22 kw=0.073 pf=0.92 Daily=cc38_Util Model=2 status=variable vminpu=0.93 vmaxpu=1.1 
New Load.IP_18226_MOD3 bus=BT_14470_1.2 phases=1 conn=Wye kv=0.22 kw=0.073 pf=0.92 Daily=cc38_Util Model=3 status=variable vminpu=0.93 vmaxpu=1.1 

New Load.IP_18227_MOD2 bus=BT_14469_1.1 phases=1 conn=Wye kv=0.22 kw=0.073 pf=0.92 Daily=cc38_Util Model=2 status=variable vminpu=0.93 vmaxpu=1.1 
New Load.IP_18227_MOD3 bus=BT_14469_1.1 phases=1 conn=Wye kv=0.22 kw=0.073 pf=0.92 Daily=cc38_Util Model=3 status=variable vminpu=0.93 vmaxpu=1.1 

New Load.IP_18228_MOD2 bus=BT_52968_1.1 phases=1 conn=Wye kv=0.219 kw=0.07 pf=0.92 Daily=cc38_Util Model=2 status=variable vminpu=0.93 vmaxpu=1.1 
New Load.IP_18228_MOD3 bus=BT_52968_1.1 phases=1 conn=Wye kv=0.219 kw=0.07 pf=0.92 Daily=cc38_Util Model=3 status=variable vminpu=0.93 vmaxpu=1.1 

New Load.IP_18284_MOD2 bus=BT_16463_1.1 phases=1 conn=Wye kv=0.22 kw=0.088 pf=0.92 Daily=cc38_Util Model=2 status=variable vminpu=0.93 vmaxpu=1.1 
New Load.IP_18284_MOD3 bus=BT_16463_1.1 phases=1 conn=Wye kv=0.22 kw=0.088 pf=0.92 Daily=cc38_Util Model=3 status=variable vminpu=0.93 vmaxpu=1.1 

New Load.IP_18285_MOD2 bus=BT_16469_1.1 phases=1 conn=Wye kv=0.22 kw=0.088 pf=0.92 Daily=cc38_Util Model=2 status=variable vminpu=0.93 vmaxpu=1.1 
New Load.IP_18285_MOD3 bus=BT_16469_1.1 phases=1 conn=Wye kv=0.22 kw=0.088 pf=0.92 Daily=cc38_Util Model=3 status=variable vminpu=0.93 vmaxpu=1.1 

New Load.IP_18286_MOD2 bus=BT_44950_1.1 phases=1 conn=Wye kv=0.22 kw=0.088 pf=0.92 Daily=cc38_Util Model=2 status=variable vminpu=0.93 vmaxpu=1.1 
New Load.IP_18286_MOD3 bus=BT_44950_1.1 phases=1 conn=Wye kv=0.22 kw=0.088 pf=0.92 Daily=cc38_Util Model=3 status=variable vminpu=0.93 vmaxpu=1.1 

New Load.IP_18302_MOD2 bus=BT_20988_1.1 phases=1 conn=Wye kv=0.22 kw=0.1435 pf=0.92 Daily=cc38_Util Model=2 status=variable vminpu=0.93 vmaxpu=1.1 
New Load.IP_18302_MOD3 bus=BT_20988_1.1 phases=1 conn=Wye kv=0.22 kw=0.1435 pf=0.92 Daily=cc38_Util Model=3 status=variable vminpu=0.93 vmaxpu=1.1 

New Load.IP_18310_MOD2 bus=BT_46979_1.1 phases=1 conn=Wye kv=0.22 kw=0.088 pf=0.92 Daily=cc38_Util Model=2 status=variable vminpu=0.93 vmaxpu=1.1 
New Load.IP_18310_MOD3 bus=BT_46979_1.1 phases=1 conn=Wye kv=0.22 kw=0.088 pf=0.92 Daily=cc38_Util Model=3 status=variable vminpu=0.93 vmaxpu=1.1 

New Load.IP_18317_MOD2 bus=BT_100722_1.1 phases=1 conn=Wye kv=0.22 kw=0.088 pf=0.92 Daily=cc38_Util Model=2 status=variable vminpu=0.93 vmaxpu=1.1 
New Load.IP_18317_MOD3 bus=BT_100722_1.1 phases=1 conn=Wye kv=0.22 kw=0.088 pf=0.92 Daily=cc38_Util Model=3 status=variable vminpu=0.93 vmaxpu=1.1 

New Load.IP_18328_MOD2 bus=BT_28577_1.1 phases=1 conn=Wye kv=0.22 kw=0.088 pf=0.92 Daily=cc38_Util Model=2 status=variable vminpu=0.93 vmaxpu=1.1 
New Load.IP_18328_MOD3 bus=BT_28577_1.1 phases=1 conn=Wye kv=0.22 kw=0.088 pf=0.92 Daily=cc38_Util Model=3 status=variable vminpu=0.93 vmaxpu=1.1 

New Load.IP_18346_MOD2 bus=BT_70220_1.1 phases=1 conn=Wye kv=0.22 kw=0.088 pf=0.92 Daily=cc38_Util Model=2 status=variable vminpu=0.93 vmaxpu=1.1 
New Load.IP_18346_MOD3 bus=BT_70220_1.1 phases=1 conn=Wye kv=0.22 kw=0.088 pf=0.92 Daily=cc38_Util Model=3 status=variable vminpu=0.93 vmaxpu=1.1 

New Load.IP_18348_MOD2 bus=BT_50351_1.1 phases=1 conn=Wye kv=0.22 kw=0.088 pf=0.92 Daily=cc38_Util Model=2 status=variable vminpu=0.93 vmaxpu=1.1 
New Load.IP_18348_MOD3 bus=BT_50351_1.1 phases=1 conn=Wye kv=0.22 kw=0.088 pf=0.92 Daily=cc38_Util Model=3 status=variable vminpu=0.93 vmaxpu=1.1 

New Load.IP_18349_MOD2 bus=BT_28541_1.1 phases=1 conn=Wye kv=0.22 kw=0.088 pf=0.92 Daily=cc38_Util Model=2 status=variable vminpu=0.93 vmaxpu=1.1 
New Load.IP_18349_MOD3 bus=BT_28541_1.1 phases=1 conn=Wye kv=0.22 kw=0.088 pf=0.92 Daily=cc38_Util Model=3 status=variable vminpu=0.93 vmaxpu=1.1 

New Load.IP_18353_MOD2 bus=BT_20533_1.2 phases=1 conn=Wye kv=0.22 kw=0.088 pf=0.92 Daily=cc38_Util Model=2 status=variable vminpu=0.93 vmaxpu=1.1 
New Load.IP_18353_MOD3 bus=BT_20533_1.2 phases=1 conn=Wye kv=0.22 kw=0.088 pf=0.92 Daily=cc38_Util Model=3 status=variable vminpu=0.93 vmaxpu=1.1 

New Load.IP_18360_MOD2 bus=BT_103642_1.2 phases=1 conn=Wye kv=0.22 kw=0.088 pf=0.92 Daily=cc38_Util Model=2 status=variable vminpu=0.93 vmaxpu=1.1 
New Load.IP_18360_MOD3 bus=BT_103642_1.2 phases=1 conn=Wye kv=0.22 kw=0.088 pf=0.92 Daily=cc38_Util Model=3 status=variable vminpu=0.93 vmaxpu=1.1 

New Load.IP_18370_MOD2 bus=BT_28045_1.3 phases=1 conn=Wye kv=0.219 kw=0.073 pf=0.92 Daily=cc38_Util Model=2 status=variable vminpu=0.93 vmaxpu=1.1 
New Load.IP_18370_MOD3 bus=BT_28045_1.3 phases=1 conn=Wye kv=0.219 kw=0.073 pf=0.92 Daily=cc38_Util Model=3 status=variable vminpu=0.93 vmaxpu=1.1 

New Load.IP_18371_MOD2 bus=BT_28043_1.3 phases=1 conn=Wye kv=0.219 kw=0.073 pf=0.92 Daily=cc38_Util Model=2 status=variable vminpu=0.93 vmaxpu=1.1 
New Load.IP_18371_MOD3 bus=BT_28043_1.3 phases=1 conn=Wye kv=0.219 kw=0.073 pf=0.92 Daily=cc38_Util Model=3 status=variable vminpu=0.93 vmaxpu=1.1 

New Load.IP_18528_MOD2 bus=BT_78011_1.1 phases=1 conn=Wye kv=0.22 kw=0.043 pf=0.92 Daily=cc38_Util Model=2 status=variable vminpu=0.93 vmaxpu=1.1 
New Load.IP_18528_MOD3 bus=BT_78011_1.1 phases=1 conn=Wye kv=0.22 kw=0.043 pf=0.92 Daily=cc38_Util Model=3 status=variable vminpu=0.93 vmaxpu=1.1 

New Load.IP_18690_MOD2 bus=BT_14468_1.2 phases=1 conn=Wye kv=0.22 kw=0.1435 pf=0.92 Daily=cc38_Util Model=2 status=variable vminpu=0.93 vmaxpu=1.1 
New Load.IP_18690_MOD3 bus=BT_14468_1.2 phases=1 conn=Wye kv=0.22 kw=0.1435 pf=0.92 Daily=cc38_Util Model=3 status=variable vminpu=0.93 vmaxpu=1.1 

New Load.IP_18766_MOD2 bus=BT_15524_1.1 phases=1 conn=Wye kv=0.219 kw=0.101 pf=0.92 Daily=cc38_Util Model=2 status=variable vminpu=0.93 vmaxpu=1.1 
New Load.IP_18766_MOD3 bus=BT_15524_1.1 phases=1 conn=Wye kv=0.219 kw=0.101 pf=0.92 Daily=cc38_Util Model=3 status=variable vminpu=0.93 vmaxpu=1.1 

New Load.IP_18781_MOD2 bus=BT_118750_1.3 phases=1 conn=Wye kv=0.219 kw=0.073 pf=0.92 Daily=cc38_Util Model=2 status=variable vminpu=0.93 vmaxpu=1.1 
New Load.IP_18781_MOD3 bus=BT_118750_1.3 phases=1 conn=Wye kv=0.219 kw=0.073 pf=0.92 Daily=cc38_Util Model=3 status=variable vminpu=0.93 vmaxpu=1.1 

New Load.IP_18782_MOD2 bus=BT_23806_1.1 phases=1 conn=Wye kv=0.219 kw=0.088 pf=0.92 Daily=cc38_Util Model=2 status=variable vminpu=0.93 vmaxpu=1.1 
New Load.IP_18782_MOD3 bus=BT_23806_1.1 phases=1 conn=Wye kv=0.219 kw=0.088 pf=0.92 Daily=cc38_Util Model=3 status=variable vminpu=0.93 vmaxpu=1.1 

New Load.IP_18917_MOD2 bus=BT_110774_1.2 phases=1 conn=Wye kv=0.22 kw=0.1435 pf=0.92 Daily=cc38_Util Model=2 status=variable vminpu=0.93 vmaxpu=1.1 
New Load.IP_18917_MOD3 bus=BT_110774_1.2 phases=1 conn=Wye kv=0.22 kw=0.1435 pf=0.92 Daily=cc38_Util Model=3 status=variable vminpu=0.93 vmaxpu=1.1 

New Load.IP_18918_MOD2 bus=BT_20960_1.2 phases=1 conn=Wye kv=0.22 kw=0.1435 pf=0.92 Daily=cc38_Util Model=2 status=variable vminpu=0.93 vmaxpu=1.1 
New Load.IP_18918_MOD3 bus=BT_20960_1.2 phases=1 conn=Wye kv=0.22 kw=0.1435 pf=0.92 Daily=cc38_Util Model=3 status=variable vminpu=0.93 vmaxpu=1.1 

New Load.IP_19131_MOD2 bus=BT_117367_1.2 phases=1 conn=Wye kv=0.22 kw=0.088 pf=0.92 Daily=cc38_Util Model=2 status=variable vminpu=0.93 vmaxpu=1.1 
New Load.IP_19131_MOD3 bus=BT_117367_1.2 phases=1 conn=Wye kv=0.22 kw=0.088 pf=0.92 Daily=cc38_Util Model=3 status=variable vminpu=0.93 vmaxpu=1.1 

New Load.IP_19237_MOD2 bus=BT_48934_1.1 phases=1 conn=Wye kv=0.22 kw=0.088 pf=0.92 Daily=cc38_Util Model=2 status=variable vminpu=0.93 vmaxpu=1.1 
New Load.IP_19237_MOD3 bus=BT_48934_1.1 phases=1 conn=Wye kv=0.22 kw=0.088 pf=0.92 Daily=cc38_Util Model=3 status=variable vminpu=0.93 vmaxpu=1.1 

New Load.IP_19446_MOD2 bus=BT_15541_1.1 phases=1 conn=Wye kv=0.22 kw=0.088 pf=0.92 Daily=cc38_Util Model=2 status=variable vminpu=0.93 vmaxpu=1.1 
New Load.IP_19446_MOD3 bus=BT_15541_1.1 phases=1 conn=Wye kv=0.22 kw=0.088 pf=0.92 Daily=cc38_Util Model=3 status=variable vminpu=0.93 vmaxpu=1.1 

New Load.IP_19479_MOD2 bus=BT_38406_1.1 phases=1 conn=Wye kv=0.219 kw=0.043 pf=0.92 Daily=cc38_Util Model=2 status=variable vminpu=0.93 vmaxpu=1.1 
New Load.IP_19479_MOD3 bus=BT_38406_1.1 phases=1 conn=Wye kv=0.219 kw=0.043 pf=0.92 Daily=cc38_Util Model=3 status=variable vminpu=0.93 vmaxpu=1.1 

New Load.IP_19481_MOD2 bus=BT_38408_1.1 phases=1 conn=Wye kv=0.219 kw=0.043 pf=0.92 Daily=cc38_Util Model=2 status=variable vminpu=0.93 vmaxpu=1.1 
New Load.IP_19481_MOD3 bus=BT_38408_1.1 phases=1 conn=Wye kv=0.219 kw=0.043 pf=0.92 Daily=cc38_Util Model=3 status=variable vminpu=0.93 vmaxpu=1.1 

New Load.IP_19482_MOD2 bus=BT_36569_1.1 phases=1 conn=Wye kv=0.219 kw=0.043 pf=0.92 Daily=cc38_Util Model=2 status=variable vminpu=0.93 vmaxpu=1.1 
New Load.IP_19482_MOD3 bus=BT_36569_1.1 phases=1 conn=Wye kv=0.219 kw=0.043 pf=0.92 Daily=cc38_Util Model=3 status=variable vminpu=0.93 vmaxpu=1.1 

New Load.IP_20199_MOD2 bus=BT_14323_1.1 phases=1 conn=Wye kv=0.22 kw=0.0775 pf=0.92 Daily=cc38_Util Model=2 status=variable vminpu=0.93 vmaxpu=1.1 
New Load.IP_20199_MOD3 bus=BT_14323_1.1 phases=1 conn=Wye kv=0.22 kw=0.0775 pf=0.92 Daily=cc38_Util Model=3 status=variable vminpu=0.93 vmaxpu=1.1 

New Load.IP_20339_MOD2 bus=BT_106571_1.1 phases=1 conn=Wye kv=0.22 kw=0.088 pf=0.92 Daily=cc38_Util Model=2 status=variable vminpu=0.93 vmaxpu=1.1 
New Load.IP_20339_MOD3 bus=BT_106571_1.1 phases=1 conn=Wye kv=0.22 kw=0.088 pf=0.92 Daily=cc38_Util Model=3 status=variable vminpu=0.93 vmaxpu=1.1 

New Load.IP_21292_MOD2 bus=BT_44206_1.2 phases=1 conn=Wye kv=0.22 kw=0.088 pf=0.92 Daily=cc38_Util Model=2 status=variable vminpu=0.93 vmaxpu=1.1 
New Load.IP_21292_MOD3 bus=BT_44206_1.2 phases=1 conn=Wye kv=0.22 kw=0.088 pf=0.92 Daily=cc38_Util Model=3 status=variable vminpu=0.93 vmaxpu=1.1 

New Load.IP_21318_MOD2 bus=BT_89610_1.2 phases=1 conn=Wye kv=0.219 kw=0.088 pf=0.92 Daily=cc38_Util Model=2 status=variable vminpu=0.93 vmaxpu=1.1 
New Load.IP_21318_MOD3 bus=BT_89610_1.2 phases=1 conn=Wye kv=0.219 kw=0.088 pf=0.92 Daily=cc38_Util Model=3 status=variable vminpu=0.93 vmaxpu=1.1 

New Load.IP_2166_MOD2 bus=BT_15587_1.3 phases=1 conn=Wye kv=0.219 kw=0.043 pf=0.92 Daily=cc38_Util Model=2 status=variable vminpu=0.93 vmaxpu=1.1 
New Load.IP_2166_MOD3 bus=BT_15587_1.3 phases=1 conn=Wye kv=0.219 kw=0.043 pf=0.92 Daily=cc38_Util Model=3 status=variable vminpu=0.93 vmaxpu=1.1 

New Load.IP_2168_MOD2 bus=BT_15590_1.3 phases=1 conn=Wye kv=0.219 kw=0.051 pf=0.92 Daily=cc38_Util Model=2 status=variable vminpu=0.93 vmaxpu=1.1 
New Load.IP_2168_MOD3 bus=BT_15590_1.3 phases=1 conn=Wye kv=0.219 kw=0.051 pf=0.92 Daily=cc38_Util Model=3 status=variable vminpu=0.93 vmaxpu=1.1 

New Load.IP_2169_MOD2 bus=BT_15591_1.3 phases=1 conn=Wye kv=0.219 kw=0.162 pf=0.92 Daily=cc38_Util Model=2 status=variable vminpu=0.93 vmaxpu=1.1 
New Load.IP_2169_MOD3 bus=BT_15591_1.3 phases=1 conn=Wye kv=0.219 kw=0.162 pf=0.92 Daily=cc38_Util Model=3 status=variable vminpu=0.93 vmaxpu=1.1 

New Load.IP_2170_MOD2 bus=BT_15596_1.3 phases=1 conn=Wye kv=0.219 kw=0.162 pf=0.92 Daily=cc38_Util Model=2 status=variable vminpu=0.93 vmaxpu=1.1 
New Load.IP_2170_MOD3 bus=BT_15596_1.3 phases=1 conn=Wye kv=0.219 kw=0.162 pf=0.92 Daily=cc38_Util Model=3 status=variable vminpu=0.93 vmaxpu=1.1 

New Load.IP_2171_MOD2 bus=BT_56852_1.2 phases=1 conn=Wye kv=0.219 kw=0.162 pf=0.92 Daily=cc38_Util Model=2 status=variable vminpu=0.93 vmaxpu=1.1 
New Load.IP_2171_MOD3 bus=BT_56852_1.2 phases=1 conn=Wye kv=0.219 kw=0.162 pf=0.92 Daily=cc38_Util Model=3 status=variable vminpu=0.93 vmaxpu=1.1 

New Load.IP_2172_MOD2 bus=BT_90340_1.3 phases=1 conn=Wye kv=0.219 kw=0.043 pf=0.92 Daily=cc38_Util Model=2 status=variable vminpu=0.93 vmaxpu=1.1 
New Load.IP_2172_MOD3 bus=BT_90340_1.3 phases=1 conn=Wye kv=0.219 kw=0.043 pf=0.92 Daily=cc38_Util Model=3 status=variable vminpu=0.93 vmaxpu=1.1 

New Load.IP_2173_MOD2 bus=BT_15585_1.2 phases=1 conn=Wye kv=0.219 kw=0.175 pf=0.92 Daily=cc38_Util Model=2 status=variable vminpu=0.93 vmaxpu=1.1 
New Load.IP_2173_MOD3 bus=BT_15585_1.2 phases=1 conn=Wye kv=0.219 kw=0.175 pf=0.92 Daily=cc38_Util Model=3 status=variable vminpu=0.93 vmaxpu=1.1 

New Load.IP_2174_MOD2 bus=BT_15576_1.1 phases=1 conn=Wye kv=0.219 kw=0.162 pf=0.92 Daily=cc38_Util Model=2 status=variable vminpu=0.93 vmaxpu=1.1 
New Load.IP_2174_MOD3 bus=BT_15576_1.1 phases=1 conn=Wye kv=0.219 kw=0.162 pf=0.92 Daily=cc38_Util Model=3 status=variable vminpu=0.93 vmaxpu=1.1 

New Load.IP_2175_MOD2 bus=BT_16969_1.3 phases=1 conn=Wye kv=0.219 kw=0.043 pf=0.92 Daily=cc38_Util Model=2 status=variable vminpu=0.93 vmaxpu=1.1 
New Load.IP_2175_MOD3 bus=BT_16969_1.3 phases=1 conn=Wye kv=0.219 kw=0.043 pf=0.92 Daily=cc38_Util Model=3 status=variable vminpu=0.93 vmaxpu=1.1 

New Load.IP_2180_MOD2 bus=BT_17623_1.1 phases=1 conn=Wye kv=0.22 kw=0.114 pf=0.92 Daily=cc38_Util Model=2 status=variable vminpu=0.93 vmaxpu=1.1 
New Load.IP_2180_MOD3 bus=BT_17623_1.1 phases=1 conn=Wye kv=0.22 kw=0.114 pf=0.92 Daily=cc38_Util Model=3 status=variable vminpu=0.93 vmaxpu=1.1 

New Load.IP_2181_MOD2 bus=BT_17622_1.2 phases=1 conn=Wye kv=0.22 kw=0.051 pf=0.92 Daily=cc38_Util Model=2 status=variable vminpu=0.93 vmaxpu=1.1 
New Load.IP_2181_MOD3 bus=BT_17622_1.2 phases=1 conn=Wye kv=0.22 kw=0.051 pf=0.92 Daily=cc38_Util Model=3 status=variable vminpu=0.93 vmaxpu=1.1 

New Load.IP_2182_MOD2 bus=BT_17600_1.2 phases=1 conn=Wye kv=0.22 kw=0.04 pf=0.92 Daily=cc38_Util Model=2 status=variable vminpu=0.93 vmaxpu=1.1 
New Load.IP_2182_MOD3 bus=BT_17600_1.2 phases=1 conn=Wye kv=0.22 kw=0.04 pf=0.92 Daily=cc38_Util Model=3 status=variable vminpu=0.93 vmaxpu=1.1 

New Load.IP_21828_MOD2 bus=BT_19956_1.3 phases=1 conn=Wye kv=0.219 kw=0.1435 pf=0.92 Daily=cc38_Util Model=2 status=variable vminpu=0.93 vmaxpu=1.1 
New Load.IP_21828_MOD3 bus=BT_19956_1.3 phases=1 conn=Wye kv=0.219 kw=0.1435 pf=0.92 Daily=cc38_Util Model=3 status=variable vminpu=0.93 vmaxpu=1.1 

New Load.IP_21829_MOD2 bus=BT_20324_1.1 phases=1 conn=Wye kv=0.22 kw=0.07 pf=0.92 Daily=cc38_Util Model=2 status=variable vminpu=0.93 vmaxpu=1.1 
New Load.IP_21829_MOD3 bus=BT_20324_1.1 phases=1 conn=Wye kv=0.22 kw=0.07 pf=0.92 Daily=cc38_Util Model=3 status=variable vminpu=0.93 vmaxpu=1.1 

New Load.IP_2188_MOD2 bus=BT_15602_1.1 phases=1 conn=Wye kv=0.219 kw=0.1435 pf=0.92 Daily=cc38_Util Model=2 status=variable vminpu=0.93 vmaxpu=1.1 
New Load.IP_2188_MOD3 bus=BT_15602_1.1 phases=1 conn=Wye kv=0.219 kw=0.1435 pf=0.92 Daily=cc38_Util Model=3 status=variable vminpu=0.93 vmaxpu=1.1 

New Load.IP_2189_MOD2 bus=BT_15601_1.3 phases=1 conn=Wye kv=0.219 kw=0.1435 pf=0.92 Daily=cc38_Util Model=2 status=variable vminpu=0.93 vmaxpu=1.1 
New Load.IP_2189_MOD3 bus=BT_15601_1.3 phases=1 conn=Wye kv=0.219 kw=0.1435 pf=0.92 Daily=cc38_Util Model=3 status=variable vminpu=0.93 vmaxpu=1.1 

New Load.IP_2190_MOD2 bus=BT_15598_1.1 phases=1 conn=Wye kv=0.219 kw=0.162 pf=0.92 Daily=cc38_Util Model=2 status=variable vminpu=0.93 vmaxpu=1.1 
New Load.IP_2190_MOD3 bus=BT_15598_1.1 phases=1 conn=Wye kv=0.219 kw=0.162 pf=0.92 Daily=cc38_Util Model=3 status=variable vminpu=0.93 vmaxpu=1.1 

New Load.IP_2191_MOD2 bus=BT_15605_1.2 phases=1 conn=Wye kv=0.219 kw=0.15 pf=0.92 Daily=cc38_Util Model=2 status=variable vminpu=0.93 vmaxpu=1.1 
New Load.IP_2191_MOD3 bus=BT_15605_1.2 phases=1 conn=Wye kv=0.219 kw=0.15 pf=0.92 Daily=cc38_Util Model=3 status=variable vminpu=0.93 vmaxpu=1.1 

New Load.IP_2192_MOD2 bus=BT_15604_1.3 phases=1 conn=Wye kv=0.219 kw=0.15 pf=0.92 Daily=cc38_Util Model=2 status=variable vminpu=0.93 vmaxpu=1.1 
New Load.IP_2192_MOD3 bus=BT_15604_1.3 phases=1 conn=Wye kv=0.219 kw=0.15 pf=0.92 Daily=cc38_Util Model=3 status=variable vminpu=0.93 vmaxpu=1.1 

New Load.IP_2193_MOD2 bus=BT_15603_1.3 phases=1 conn=Wye kv=0.219 kw=0.1435 pf=0.92 Daily=cc38_Util Model=2 status=variable vminpu=0.93 vmaxpu=1.1 
New Load.IP_2193_MOD3 bus=BT_15603_1.3 phases=1 conn=Wye kv=0.219 kw=0.1435 pf=0.92 Daily=cc38_Util Model=3 status=variable vminpu=0.93 vmaxpu=1.1 

New Load.IP_2194_MOD2 bus=BT_15597_1.1 phases=1 conn=Wye kv=0.219 kw=0.162 pf=0.92 Daily=cc38_Util Model=2 status=variable vminpu=0.93 vmaxpu=1.1 
New Load.IP_2194_MOD3 bus=BT_15597_1.1 phases=1 conn=Wye kv=0.219 kw=0.162 pf=0.92 Daily=cc38_Util Model=3 status=variable vminpu=0.93 vmaxpu=1.1 

New Load.IP_2195_MOD2 bus=BT_15606_1.3 phases=1 conn=Wye kv=0.219 kw=0.162 pf=0.92 Daily=cc38_Util Model=2 status=variable vminpu=0.93 vmaxpu=1.1 
New Load.IP_2195_MOD3 bus=BT_15606_1.3 phases=1 conn=Wye kv=0.219 kw=0.162 pf=0.92 Daily=cc38_Util Model=3 status=variable vminpu=0.93 vmaxpu=1.1 

New Load.IP_2196_MOD2 bus=BT_16976_1.2 phases=1 conn=Wye kv=0.219 kw=0.043 pf=0.92 Daily=cc38_Util Model=2 status=variable vminpu=0.93 vmaxpu=1.1 
New Load.IP_2196_MOD3 bus=BT_16976_1.2 phases=1 conn=Wye kv=0.219 kw=0.043 pf=0.92 Daily=cc38_Util Model=3 status=variable vminpu=0.93 vmaxpu=1.1 

New Load.IP_2197_MOD2 bus=BT_15609_1.3 phases=1 conn=Wye kv=0.219 kw=0.1435 pf=0.92 Daily=cc38_Util Model=2 status=variable vminpu=0.93 vmaxpu=1.1 
New Load.IP_2197_MOD3 bus=BT_15609_1.3 phases=1 conn=Wye kv=0.219 kw=0.1435 pf=0.92 Daily=cc38_Util Model=3 status=variable vminpu=0.93 vmaxpu=1.1 

New Load.IP_2198_MOD2 bus=BT_15607_1.3 phases=1 conn=Wye kv=0.219 kw=0.162 pf=0.92 Daily=cc38_Util Model=2 status=variable vminpu=0.93 vmaxpu=1.1 
New Load.IP_2198_MOD3 bus=BT_15607_1.3 phases=1 conn=Wye kv=0.219 kw=0.162 pf=0.92 Daily=cc38_Util Model=3 status=variable vminpu=0.93 vmaxpu=1.1 

New Load.IP_21981_MOD2 bus=BT_18767_1.1 phases=1 conn=Wye kv=0.22 kw=0.043 pf=0.92 Daily=cc38_Util Model=2 status=variable vminpu=0.93 vmaxpu=1.1 
New Load.IP_21981_MOD3 bus=BT_18767_1.1 phases=1 conn=Wye kv=0.22 kw=0.043 pf=0.92 Daily=cc38_Util Model=3 status=variable vminpu=0.93 vmaxpu=1.1 

New Load.IP_2199_MOD2 bus=BT_15620_1.3 phases=1 conn=Wye kv=0.219 kw=0.1435 pf=0.92 Daily=cc38_Util Model=2 status=variable vminpu=0.93 vmaxpu=1.1 
New Load.IP_2199_MOD3 bus=BT_15620_1.3 phases=1 conn=Wye kv=0.219 kw=0.1435 pf=0.92 Daily=cc38_Util Model=3 status=variable vminpu=0.93 vmaxpu=1.1 

New Load.IP_2200_MOD2 bus=BT_15619_1.3 phases=1 conn=Wye kv=0.219 kw=0.1435 pf=0.92 Daily=cc38_Util Model=2 status=variable vminpu=0.93 vmaxpu=1.1 
New Load.IP_2200_MOD3 bus=BT_15619_1.3 phases=1 conn=Wye kv=0.219 kw=0.1435 pf=0.92 Daily=cc38_Util Model=3 status=variable vminpu=0.93 vmaxpu=1.1 

New Load.IP_2201_MOD2 bus=BT_15616_1.3 phases=1 conn=Wye kv=0.219 kw=0.1435 pf=0.92 Daily=cc38_Util Model=2 status=variable vminpu=0.93 vmaxpu=1.1 
New Load.IP_2201_MOD3 bus=BT_15616_1.3 phases=1 conn=Wye kv=0.219 kw=0.1435 pf=0.92 Daily=cc38_Util Model=3 status=variable vminpu=0.93 vmaxpu=1.1 

New Load.IP_2202_MOD2 bus=BT_16972_1.1 phases=1 conn=Wye kv=0.219 kw=0.1435 pf=0.92 Daily=cc38_Util Model=2 status=variable vminpu=0.93 vmaxpu=1.1 
New Load.IP_2202_MOD3 bus=BT_16972_1.1 phases=1 conn=Wye kv=0.219 kw=0.1435 pf=0.92 Daily=cc38_Util Model=3 status=variable vminpu=0.93 vmaxpu=1.1 

New Load.IP_2203_MOD2 bus=BT_15617_1.3 phases=1 conn=Wye kv=0.219 kw=0.1435 pf=0.92 Daily=cc38_Util Model=2 status=variable vminpu=0.93 vmaxpu=1.1 
New Load.IP_2203_MOD3 bus=BT_15617_1.3 phases=1 conn=Wye kv=0.219 kw=0.1435 pf=0.92 Daily=cc38_Util Model=3 status=variable vminpu=0.93 vmaxpu=1.1 

New Load.IP_2204_MOD2 bus=BT_15618_1.2 phases=1 conn=Wye kv=0.219 kw=0.1435 pf=0.92 Daily=cc38_Util Model=2 status=variable vminpu=0.93 vmaxpu=1.1 
New Load.IP_2204_MOD3 bus=BT_15618_1.2 phases=1 conn=Wye kv=0.219 kw=0.1435 pf=0.92 Daily=cc38_Util Model=3 status=variable vminpu=0.93 vmaxpu=1.1 

New Load.IP_2205_MOD2 bus=BT_56847_1.2 phases=1 conn=Wye kv=0.219 kw=0.1435 pf=0.92 Daily=cc38_Util Model=2 status=variable vminpu=0.93 vmaxpu=1.1 
New Load.IP_2205_MOD3 bus=BT_56847_1.2 phases=1 conn=Wye kv=0.219 kw=0.1435 pf=0.92 Daily=cc38_Util Model=3 status=variable vminpu=0.93 vmaxpu=1.1 

New Load.IP_2206_MOD2 bus=BT_16970_1.2 phases=1 conn=Wye kv=0.219 kw=0.043 pf=0.92 Daily=cc38_Util Model=2 status=variable vminpu=0.93 vmaxpu=1.1 
New Load.IP_2206_MOD3 bus=BT_16970_1.2 phases=1 conn=Wye kv=0.219 kw=0.043 pf=0.92 Daily=cc38_Util Model=3 status=variable vminpu=0.93 vmaxpu=1.1 

New Load.IP_2207_MOD2 bus=BT_16971_1.3 phases=1 conn=Wye kv=0.219 kw=0.043 pf=0.92 Daily=cc38_Util Model=2 status=variable vminpu=0.93 vmaxpu=1.1 
New Load.IP_2207_MOD3 bus=BT_16971_1.3 phases=1 conn=Wye kv=0.219 kw=0.043 pf=0.92 Daily=cc38_Util Model=3 status=variable vminpu=0.93 vmaxpu=1.1 

New Load.IP_22173_MOD2 bus=BT_19041_1.2 phases=1 conn=Wye kv=0.22 kw=0.088 pf=0.92 Daily=cc38_Util Model=2 status=variable vminpu=0.93 vmaxpu=1.1 
New Load.IP_22173_MOD3 bus=BT_19041_1.2 phases=1 conn=Wye kv=0.22 kw=0.088 pf=0.92 Daily=cc38_Util Model=3 status=variable vminpu=0.93 vmaxpu=1.1 

New Load.IP_22174_MOD2 bus=BT_105687_1.1 phases=1 conn=Wye kv=0.22 kw=0.1435 pf=0.92 Daily=cc38_Util Model=2 status=variable vminpu=0.93 vmaxpu=1.1 
New Load.IP_22174_MOD3 bus=BT_105687_1.1 phases=1 conn=Wye kv=0.22 kw=0.1435 pf=0.92 Daily=cc38_Util Model=3 status=variable vminpu=0.93 vmaxpu=1.1 

New Load.IP_22175_MOD2 bus=BT_16985_1.2 phases=1 conn=Wye kv=0.22 kw=0.043 pf=0.92 Daily=cc38_Util Model=2 status=variable vminpu=0.93 vmaxpu=1.1 
New Load.IP_22175_MOD3 bus=BT_16985_1.2 phases=1 conn=Wye kv=0.22 kw=0.043 pf=0.92 Daily=cc38_Util Model=3 status=variable vminpu=0.93 vmaxpu=1.1 

New Load.IP_22176_MOD2 bus=BT_81917_1.1 phases=1 conn=Wye kv=0.219 kw=0.043 pf=0.92 Daily=cc38_Util Model=2 status=variable vminpu=0.93 vmaxpu=1.1 
New Load.IP_22176_MOD3 bus=BT_81917_1.1 phases=1 conn=Wye kv=0.219 kw=0.043 pf=0.92 Daily=cc38_Util Model=3 status=variable vminpu=0.93 vmaxpu=1.1 

New Load.IP_22177_MOD2 bus=BT_101978_2.2 phases=1 conn=Wye kv=0.22 kw=0.043 pf=0.92 Daily=cc38_Util Model=2 status=variable vminpu=0.93 vmaxpu=1.1 
New Load.IP_22177_MOD3 bus=BT_101978_2.2 phases=1 conn=Wye kv=0.22 kw=0.043 pf=0.92 Daily=cc38_Util Model=3 status=variable vminpu=0.93 vmaxpu=1.1 

New Load.IP_22178_MOD2 bus=BT_101975_1.2 phases=1 conn=Wye kv=0.22 kw=0.043 pf=0.92 Daily=cc38_Util Model=2 status=variable vminpu=0.93 vmaxpu=1.1 
New Load.IP_22178_MOD3 bus=BT_101975_1.2 phases=1 conn=Wye kv=0.22 kw=0.043 pf=0.92 Daily=cc38_Util Model=3 status=variable vminpu=0.93 vmaxpu=1.1 

New Load.IP_22179_MOD2 bus=BT_56848_1.2 phases=1 conn=Wye kv=0.22 kw=0.043 pf=0.92 Daily=cc38_Util Model=2 status=variable vminpu=0.93 vmaxpu=1.1 
New Load.IP_22179_MOD3 bus=BT_56848_1.2 phases=1 conn=Wye kv=0.22 kw=0.043 pf=0.92 Daily=cc38_Util Model=3 status=variable vminpu=0.93 vmaxpu=1.1 

New Load.IP_22227_MOD2 bus=BT_23810_1.1 phases=1 conn=Wye kv=0.219 kw=0.088 pf=0.92 Daily=cc38_Util Model=2 status=variable vminpu=0.93 vmaxpu=1.1 
New Load.IP_22227_MOD3 bus=BT_23810_1.1 phases=1 conn=Wye kv=0.219 kw=0.088 pf=0.92 Daily=cc38_Util Model=3 status=variable vminpu=0.93 vmaxpu=1.1 

New Load.IP_22228_MOD2 bus=BT_17342_1.1 phases=1 conn=Wye kv=0.22 kw=0.088 pf=0.92 Daily=cc38_Util Model=2 status=variable vminpu=0.93 vmaxpu=1.1 
New Load.IP_22228_MOD3 bus=BT_17342_1.1 phases=1 conn=Wye kv=0.22 kw=0.088 pf=0.92 Daily=cc38_Util Model=3 status=variable vminpu=0.93 vmaxpu=1.1 

New Load.IP_22229_MOD2 bus=BT_105601_1.3 phases=1 conn=Wye kv=0.219 kw=0.088 pf=0.92 Daily=cc38_Util Model=2 status=variable vminpu=0.93 vmaxpu=1.1 
New Load.IP_22229_MOD3 bus=BT_105601_1.3 phases=1 conn=Wye kv=0.219 kw=0.088 pf=0.92 Daily=cc38_Util Model=3 status=variable vminpu=0.93 vmaxpu=1.1 

New Load.IP_22230_MOD2 bus=BT_40295_1.1 phases=1 conn=Wye kv=0.219 kw=0.254 pf=0.92 Daily=cc38_Util Model=2 status=variable vminpu=0.93 vmaxpu=1.1 
New Load.IP_22230_MOD3 bus=BT_40295_1.1 phases=1 conn=Wye kv=0.219 kw=0.254 pf=0.92 Daily=cc38_Util Model=3 status=variable vminpu=0.93 vmaxpu=1.1 

New Load.IP_22231_MOD2 bus=BT_57878_1.3 phases=1 conn=Wye kv=0.219 kw=0.088 pf=0.92 Daily=cc38_Util Model=2 status=variable vminpu=0.93 vmaxpu=1.1 
New Load.IP_22231_MOD3 bus=BT_57878_1.3 phases=1 conn=Wye kv=0.219 kw=0.088 pf=0.92 Daily=cc38_Util Model=3 status=variable vminpu=0.93 vmaxpu=1.1 

New Load.IP_22232_MOD2 bus=BT_14277_1.3 phases=1 conn=Wye kv=0.219 kw=0.088 pf=0.92 Daily=cc38_Util Model=2 status=variable vminpu=0.93 vmaxpu=1.1 
New Load.IP_22232_MOD3 bus=BT_14277_1.3 phases=1 conn=Wye kv=0.219 kw=0.088 pf=0.92 Daily=cc38_Util Model=3 status=variable vminpu=0.93 vmaxpu=1.1 

New Load.IP_22233_MOD2 bus=BT_116843_1.3 phases=1 conn=Wye kv=0.219 kw=0.088 pf=0.92 Daily=cc38_Util Model=2 status=variable vminpu=0.93 vmaxpu=1.1 
New Load.IP_22233_MOD3 bus=BT_116843_1.3 phases=1 conn=Wye kv=0.219 kw=0.088 pf=0.92 Daily=cc38_Util Model=3 status=variable vminpu=0.93 vmaxpu=1.1 

New Load.IP_22234_MOD2 bus=BT_80825_1.3 phases=1 conn=Wye kv=0.219 kw=0.101 pf=0.92 Daily=cc38_Util Model=2 status=variable vminpu=0.93 vmaxpu=1.1 
New Load.IP_22234_MOD3 bus=BT_80825_1.3 phases=1 conn=Wye kv=0.219 kw=0.101 pf=0.92 Daily=cc38_Util Model=3 status=variable vminpu=0.93 vmaxpu=1.1 

New Load.IP_22235_MOD2 bus=BT_14270_1.1 phases=1 conn=Wye kv=0.219 kw=0.1435 pf=0.92 Daily=cc38_Util Model=2 status=variable vminpu=0.93 vmaxpu=1.1 
New Load.IP_22235_MOD3 bus=BT_14270_1.1 phases=1 conn=Wye kv=0.219 kw=0.1435 pf=0.92 Daily=cc38_Util Model=3 status=variable vminpu=0.93 vmaxpu=1.1 

New Load.IP_22236_MOD2 bus=BT_16928_1.1 phases=1 conn=Wye kv=0.219 kw=0.088 pf=0.92 Daily=cc38_Util Model=2 status=variable vminpu=0.93 vmaxpu=1.1 
New Load.IP_22236_MOD3 bus=BT_16928_1.1 phases=1 conn=Wye kv=0.219 kw=0.088 pf=0.92 Daily=cc38_Util Model=3 status=variable vminpu=0.93 vmaxpu=1.1 

New Load.IP_22237_MOD2 bus=BT_16925_1.2 phases=1 conn=Wye kv=0.219 kw=0.088 pf=0.92 Daily=cc38_Util Model=2 status=variable vminpu=0.93 vmaxpu=1.1 
New Load.IP_22237_MOD3 bus=BT_16925_1.2 phases=1 conn=Wye kv=0.219 kw=0.088 pf=0.92 Daily=cc38_Util Model=3 status=variable vminpu=0.93 vmaxpu=1.1 

New Load.IP_22238_MOD2 bus=BT_116204_1.1 phases=1 conn=Wye kv=0.219 kw=0.088 pf=0.92 Daily=cc38_Util Model=2 status=variable vminpu=0.93 vmaxpu=1.1 
New Load.IP_22238_MOD3 bus=BT_116204_1.1 phases=1 conn=Wye kv=0.219 kw=0.088 pf=0.92 Daily=cc38_Util Model=3 status=variable vminpu=0.93 vmaxpu=1.1 

New Load.IP_22239_MOD2 bus=BT_116209_1.2 phases=1 conn=Wye kv=0.219 kw=0.101 pf=0.92 Daily=cc38_Util Model=2 status=variable vminpu=0.93 vmaxpu=1.1 
New Load.IP_22239_MOD3 bus=BT_116209_1.2 phases=1 conn=Wye kv=0.219 kw=0.101 pf=0.92 Daily=cc38_Util Model=3 status=variable vminpu=0.93 vmaxpu=1.1 

New Load.IP_22240_MOD2 bus=BT_116219_1.3 phases=1 conn=Wye kv=0.219 kw=0.088 pf=0.92 Daily=cc38_Util Model=2 status=variable vminpu=0.93 vmaxpu=1.1 
New Load.IP_22240_MOD3 bus=BT_116219_1.3 phases=1 conn=Wye kv=0.219 kw=0.088 pf=0.92 Daily=cc38_Util Model=3 status=variable vminpu=0.93 vmaxpu=1.1 

New Load.IP_22241_MOD2 bus=BT_116210_1.3 phases=1 conn=Wye kv=0.219 kw=0.1435 pf=0.92 Daily=cc38_Util Model=2 status=variable vminpu=0.93 vmaxpu=1.1 
New Load.IP_22241_MOD3 bus=BT_116210_1.3 phases=1 conn=Wye kv=0.219 kw=0.1435 pf=0.92 Daily=cc38_Util Model=3 status=variable vminpu=0.93 vmaxpu=1.1 

New Load.IP_22242_MOD2 bus=BT_109162_1.3 phases=1 conn=Wye kv=0.219 kw=0.088 pf=0.92 Daily=cc38_Util Model=2 status=variable vminpu=0.93 vmaxpu=1.1 
New Load.IP_22242_MOD3 bus=BT_109162_1.3 phases=1 conn=Wye kv=0.219 kw=0.088 pf=0.92 Daily=cc38_Util Model=3 status=variable vminpu=0.93 vmaxpu=1.1 

New Load.IP_22243_MOD2 bus=BT_14254_1.2 phases=1 conn=Wye kv=0.219 kw=0.088 pf=0.92 Daily=cc38_Util Model=2 status=variable vminpu=0.93 vmaxpu=1.1 
New Load.IP_22243_MOD3 bus=BT_14254_1.2 phases=1 conn=Wye kv=0.219 kw=0.088 pf=0.92 Daily=cc38_Util Model=3 status=variable vminpu=0.93 vmaxpu=1.1 

New Load.IP_22244_MOD2 bus=BT_14243_1.2 phases=1 conn=Wye kv=0.219 kw=0.088 pf=0.92 Daily=cc38_Util Model=2 status=variable vminpu=0.93 vmaxpu=1.1 
New Load.IP_22244_MOD3 bus=BT_14243_1.2 phases=1 conn=Wye kv=0.219 kw=0.088 pf=0.92 Daily=cc38_Util Model=3 status=variable vminpu=0.93 vmaxpu=1.1 

New Load.IP_22245_MOD2 bus=BT_14241_1.3 phases=1 conn=Wye kv=0.219 kw=0.101 pf=0.92 Daily=cc38_Util Model=2 status=variable vminpu=0.93 vmaxpu=1.1 
New Load.IP_22245_MOD3 bus=BT_14241_1.3 phases=1 conn=Wye kv=0.219 kw=0.101 pf=0.92 Daily=cc38_Util Model=3 status=variable vminpu=0.93 vmaxpu=1.1 

New Load.IP_22246_MOD2 bus=BT_14200_1.1 phases=1 conn=Wye kv=0.219 kw=0.088 pf=0.92 Daily=cc38_Util Model=2 status=variable vminpu=0.93 vmaxpu=1.1 
New Load.IP_22246_MOD3 bus=BT_14200_1.1 phases=1 conn=Wye kv=0.219 kw=0.088 pf=0.92 Daily=cc38_Util Model=3 status=variable vminpu=0.93 vmaxpu=1.1 

New Load.IP_22521_MOD2 bus=BT_15106_1.2 phases=1 conn=Wye kv=0.22 kw=0.07 pf=0.92 Daily=cc38_Util Model=2 status=variable vminpu=0.93 vmaxpu=1.1 
New Load.IP_22521_MOD3 bus=BT_15106_1.2 phases=1 conn=Wye kv=0.22 kw=0.07 pf=0.92 Daily=cc38_Util Model=3 status=variable vminpu=0.93 vmaxpu=1.1 

...